
--------------------- MoorDyn v1.00.04C -------------------------

Copyright 2014-2016 Matt Hall <mtjhall@alumni.uvic.ca>

MoorDyn is free software: you can redistribute it and/or modify 
it under the terms of the GNU General Public License as published 
by the Free Software Foundation, either version 3 of the License, 
or (at your option) any later version.

MoorDyn is distributed in the hope that it will be useful, but 
WITHOUT ANY WARRANTY; without even the implied warranty of 
MERCHANTABILITY or FITNESS FOR A PARTICULAR PURPOSE.  See the GNU 
General Public License for details.

You should have received a copy of the GNU General Public License 
along with MoorDyn.  If not, see <http://www.gnu.org/licenses/>.

---------------------- More Information -------------------------

More information and resources about MoorDyn are available at 
<www.matt-hall.ca/MoorDyn> -- including the User's Guide, source
code, and examples.  This version of MoorDyn is 
designed for coupling with a wide variety of tools.  For 
information about MoorDyn F, the FORTRAN-based version that is
part of FAST v8, see <nwtc.nrel.gov/MoorDyn>

For information about MoorDyn's formulation and some validation 
results, see M. Hall and A. Goupee, “Validation of a lumped-mass 
mooring line model with DeepCwind semisubmersible model test 
data,” Ocean Engineering, vol. 104, pp. 590–603, Aug. 2015.  
<http://www.sciencedirect.com/science/article/pii/S0029801815002279>
